<?xml version="1.0" encoding="UTF-8"?>

<!-- generated on 05/09/19 11:05:40 by Eclipse SUMO netedit Version 1.0.1
<configuration xmlns:xsi="http://www.w3.org/2001/XMLSchema-instance" xsi:noNamespaceSchemaLocation="http://sumo.dlr.de/xsd/netconvertConfiguration.xsd">

    <output>
        <output-file value="H:\CASIA\simple_shortest_routing\conf\test0.net.xml"/>
    </output>

    <processing>
        <offset.disable-normalization value="true"/>
    </processing>

    <junctions>
        <no-turnarounds value="true"/>
    </junctions>

</configuration>
-->

<net version="1.0" junctionCornerDetail="5" limitTurnSpeed="5.50" xmlns:xsi="http://www.w3.org/2001/XMLSchema-instance" xsi:noNamespaceSchemaLocation="http://sumo.dlr.de/xsd/net_file.xsd">

    <location netOffset="0.00,0.00" convBoundary="-53.27,-92.17,246.40,112.19" origBoundary="10000000000.00,10000000000.00,-10000000000.00,-10000000000.00" projParameter="!"/>

    <edge id=":gneJ3_0" function="internal">
        <lane id=":gneJ3_0_0" index="0" speed="6.97" length="11.28" shape="60.51,63.53 58.07,62.87 55.88,63.52 53.93,65.49 52.23,68.77"/>
    </edge>
    <edge id=":gneJ3_1" function="internal">
        <lane id=":gneJ3_1_0" index="0" speed="13.89" length="15.82" shape="60.51,63.53 56.89,62.26 52.91,61.80 48.85,61.99 45.00,62.68"/>
    </edge>
    <edge id=":gneJ3_2" function="internal">
        <lane id=":gneJ3_2_0" index="0" speed="13.89" length="4.73" shape="60.51,63.53 57.29,61.44 56.64,60.83"/>
    </edge>
    <edge id=":gneJ3_12" function="internal">
        <lane id=":gneJ3_12_0" index="0" speed="13.89" length="10.89" shape="56.64,60.83 54.40,58.72 52.00,55.55 50.25,52.13"/>
    </edge>
    <edge id=":gneJ3_3" function="internal">
        <lane id=":gneJ3_3_0" index="0" speed="12.89" length="13.41" shape="53.22,50.95 54.74,54.11 56.62,56.71 58.99,58.85 61.98,60.69"/>
    </edge>
    <edge id=":gneJ3_4" function="internal">
        <lane id=":gneJ3_4_0" index="0" speed="13.89" length="18.13" shape="53.22,50.95 54.11,55.05 54.12,59.87 53.43,64.68 52.23,68.77"/>
    </edge>
    <edge id=":gneJ3_5" function="internal">
        <lane id=":gneJ3_5_0" index="0" speed="8.27" length="7.84" shape="53.22,50.95 54.02,55.00 52.92,58.30 52.74,58.45"/>
    </edge>
    <edge id=":gneJ3_13" function="internal">
        <lane id=":gneJ3_13_0" index="0" speed="8.27" length="8.95" shape="52.74,58.45 49.91,60.86 45.00,62.68"/>
    </edge>
    <edge id=":gneJ3_6" function="internal">
        <lane id=":gneJ3_6_0" index="0" speed="6.84" length="11.13" shape="44.23,59.57 47.67,58.35 49.82,56.71 50.68,54.63 50.25,52.13"/>
    </edge>
    <edge id=":gneJ3_7" function="internal">
        <lane id=":gneJ3_7_0" index="0" speed="13.89" length="18.04" shape="44.23,59.57 48.43,58.92 53.26,58.82 58.01,59.38 61.98,60.69"/>
    </edge>
    <edge id=":gneJ3_8" function="internal">
        <lane id=":gneJ3_8_0" index="0" speed="7.38" length="8.64" shape="44.23,59.57 49.60,58.95 52.58,60.21"/>
    </edge>
    <edge id=":gneJ3_14" function="internal">
        <lane id=":gneJ3_14_0" index="0" speed="7.38" length="8.94" shape="52.58,60.21 52.72,60.27 53.60,63.55 52.23,68.77"/>
    </edge>
    <edge id=":gneJ3_9" function="internal">
        <lane id=":gneJ3_9_0" index="0" speed="5.57" length="9.37" shape="49.26,67.58 49.99,64.80 49.52,63.05 47.86,62.35 45.00,62.68"/>
    </edge>
    <edge id=":gneJ3_10" function="internal">
        <lane id=":gneJ3_10_0" index="0" speed="13.38" length="15.80" shape="49.26,67.58 50.46,63.86 51.14,59.86 51.13,55.86 50.25,52.13"/>
    </edge>
    <edge id=":gneJ3_11" function="internal">
        <lane id=":gneJ3_11_0" index="0" speed="8.37" length="5.74" shape="49.26,67.58 51.73,62.97 52.11,62.63"/>
    </edge>
    <edge id=":gneJ3_15" function="internal">
        <lane id=":gneJ3_15_0" index="0" speed="8.37" length="11.03" shape="52.11,62.63 54.67,60.29 58.09,59.53 61.98,60.69"/>
    </edge>
    <edge id=":gneJ4_0" function="internal">
        <lane id=":gneJ4_0_0" index="0" speed="11.94" length="13.06" shape="112.33,81.50 109.38,83.35 107.03,85.38 105.24,87.86 103.97,91.03"/>
    </edge>
    <edge id=":gneJ4_1" function="internal">
        <lane id=":gneJ4_1_0" index="0" speed="12.21" length="19.12" shape="112.33,81.50 108.16,83.16 103.72,83.59 99.00,82.79 94.01,80.77"/>
    </edge>
    <edge id=":gneJ4_2" function="internal">
        <lane id=":gneJ4_2_0" index="0" speed="7.93" length="8.36" shape="112.33,81.50 108.13,82.99 104.77,82.25 104.47,81.90"/>
    </edge>
    <edge id=":gneJ4_12" function="internal">
        <lane id=":gneJ4_12_0" index="0" speed="7.93" length="8.91" shape="104.47,81.90 102.23,79.28 100.53,74.09"/>
    </edge>
    <edge id=":gneJ4_3" function="internal">
        <lane id=":gneJ4_3_0" index="0" speed="6.42" length="10.84" shape="103.67,73.45 104.74,76.90 106.29,78.92 108.29,79.52 110.76,78.71"/>
    </edge>
    <edge id=":gneJ4_4" function="internal">
        <lane id=":gneJ4_4_0" index="0" speed="13.89" length="17.70" shape="103.67,73.45 104.33,77.59 104.70,82.28 104.64,86.94 103.97,91.03"/>
    </edge>
    <edge id=":gneJ4_5" function="internal">
        <lane id=":gneJ4_5_0" index="0" speed="7.38" length="7.97" shape="103.67,73.45 104.11,79.06 103.11,81.18"/>
    </edge>
    <edge id=":gneJ4_13" function="internal">
        <lane id=":gneJ4_13_0" index="0" speed="7.38" length="10.11" shape="103.11,81.18 102.65,82.15 99.28,82.72 94.01,80.77"/>
    </edge>
    <edge id=":gneJ4_6" function="internal">
        <lane id=":gneJ4_6_0" index="0" speed="5.53" length="9.47" shape="95.47,77.92 98.24,78.94 100.00,78.64 100.76,77.03 100.53,74.09"/>
    </edge>
    <edge id=":gneJ4_7" function="internal">
        <lane id=":gneJ4_7_0" index="0" speed="11.18" length="15.96" shape="95.47,77.92 99.70,79.66 103.66,80.37 107.34,80.05 110.76,78.71"/>
    </edge>
    <edge id=":gneJ4_8" function="internal">
        <lane id=":gneJ4_8_0" index="0" speed="9.42" length="6.24" shape="95.47,77.92 100.00,80.80 100.60,81.44"/>
    </edge>
    <edge id=":gneJ4_14" function="internal">
        <lane id=":gneJ4_14_0" index="0" speed="9.42" length="10.77" shape="100.60,81.44 102.92,83.94 104.25,87.35 103.97,91.03"/>
    </edge>
    <edge id=":gneJ4_9" function="internal">
        <lane id=":gneJ4_9_0" index="0" speed="8.18" length="12.60" shape="100.89,90.16 101.00,87.66 99.89,85.26 97.56,82.96 94.01,80.77"/>
    </edge>
    <edge id=":gneJ4_10" function="internal">
        <lane id=":gneJ4_10_0" index="0" speed="13.89" length="16.20" shape="100.89,90.16 101.55,86.31 101.60,82.16 101.20,77.99 100.53,74.09"/>
    </edge>
    <edge id=":gneJ4_11" function="internal">
        <lane id=":gneJ4_11_0" index="0" speed="12.96" length="4.90" shape="100.89,90.16 102.39,86.69 103.05,85.79"/>
    </edge>
    <edge id=":gneJ4_15" function="internal">
        <lane id=":gneJ4_15_0" index="0" speed="12.96" length="10.56" shape="103.05,85.79 104.70,83.55 107.57,80.86 110.76,78.71"/>
    </edge>
    <edge id=":gneJ7_0" function="internal">
        <lane id=":gneJ7_0_0" index="0" speed="10.02" length="15.29" shape="42.04,31.46 40.27,28.52 37.59,26.33 34.00,24.91 29.51,24.26"/>
    </edge>
    <edge id=":gneJ7_1" function="internal">
        <lane id=":gneJ7_1_0" index="0" speed="13.89" length="18.55" shape="42.04,31.46 40.22,27.57 37.78,23.25 35.12,19.05 32.63,15.53"/>
    </edge>
    <edge id=":gneJ7_2" function="internal">
        <lane id=":gneJ7_2_0" index="0" speed="7.61" length="5.40" shape="42.04,31.46 41.02,27.21 41.25,26.21"/>
    </edge>
    <edge id=":gneJ7_12" function="internal">
        <lane id=":gneJ7_12_0" index="0" speed="7.61" length="9.92" shape="41.25,26.21 41.75,24.01 44.24,21.86 48.47,20.76"/>
    </edge>
    <edge id=":gneJ7_3" function="internal">
        <lane id=":gneJ7_3_0" index="0" speed="6.01" length="9.08" shape="48.83,23.94 46.32,24.59 44.85,25.87 44.41,27.76 45.02,30.28"/>
    </edge>
    <edge id=":gneJ7_4" function="internal">
        <lane id=":gneJ7_4_0" index="0" speed="13.89" length="19.33" shape="48.83,23.94 44.42,24.26 39.18,24.41 33.94,24.40 29.51,24.26"/>
    </edge>
    <edge id=":gneJ7_5" function="internal">
        <lane id=":gneJ7_5_0" index="0" speed="11.87" length="7.56" shape="48.83,23.94 44.42,23.79 41.44,22.76"/>
    </edge>
    <edge id=":gneJ7_13" function="internal">
        <lane id=":gneJ7_13_0" index="0" speed="11.87" length="11.55" shape="41.44,22.76 40.26,22.34 36.32,19.59 32.63,15.53"/>
    </edge>
    <edge id=":gneJ7_6" function="internal">
        <lane id=":gneJ7_6_0" index="0" speed="10.83" length="15.81" shape="35.18,13.59 38.28,17.03 41.53,19.37 44.93,20.62 48.47,20.76"/>
    </edge>
    <edge id=":gneJ7_7" function="internal">
        <lane id=":gneJ7_7_0" index="0" speed="13.89" length="19.41" shape="35.18,13.59 37.73,17.23 40.54,21.69 43.13,26.28 45.02,30.28"/>
    </edge>
    <edge id=":gneJ7_8" function="internal">
        <lane id=":gneJ7_8_0" index="0" speed="7.39" length="7.97" shape="35.18,13.59 38.09,18.56 38.10,20.77"/>
    </edge>
    <edge id=":gneJ7_14" function="internal">
        <lane id=":gneJ7_14_0" index="0" speed="7.39" length="10.40" shape="38.10,20.77 38.11,21.99 35.25,23.89 29.51,24.26"/>
    </edge>
    <edge id=":gneJ7_9" function="internal">
        <lane id=":gneJ7_9_0" index="0" speed="5.52" length="9.53" shape="29.69,21.06 32.67,20.87 34.15,19.88 34.14,18.10 32.63,15.53"/>
    </edge>
    <edge id=":gneJ7_10" function="internal">
        <lane id=":gneJ7_10_0" index="0" speed="13.89" length="18.80" shape="29.69,21.06 34.03,21.21 39.09,21.22 44.14,21.08 48.47,20.76"/>
    </edge>
    <edge id=":gneJ7_11" function="internal">
        <lane id=":gneJ7_11_0" index="0" speed="11.11" length="7.90" shape="29.69,21.06 35.12,21.88 37.35,22.81"/>
    </edge>
    <edge id=":gneJ7_15" function="internal">
        <lane id=":gneJ7_15_0" index="0" speed="11.11" length="11.04" shape="37.35,22.81 39.49,23.70 42.79,26.50 45.02,30.28"/>
    </edge>
    <edge id=":gneJ8_0" function="internal">
        <lane id=":gneJ8_0_0" index="0" speed="6.89" length="9.54" shape="90.50,24.88 89.64,22.53 88.18,20.95 86.11,20.14 83.45,20.08"/>
    </edge>
    <edge id=":gneJ8_1" function="internal">
        <lane id=":gneJ8_1_0" index="0" speed="13.89" length="14.50" shape="90.50,24.88 87.74,10.64"/>
    </edge>
    <edge id=":gneJ8_2" function="internal">
        <lane id=":gneJ8_2_0" index="0" speed="8.20" length="5.91" shape="90.50,24.88 90.29,21.07 91.00,19.09"/>
    </edge>
    <edge id=":gneJ8_12" function="internal">
        <lane id=":gneJ8_12_0" index="0" speed="8.20" length="8.41" shape="91.00,19.09 91.38,18.03 93.77,15.75 97.45,14.24"/>
    </edge>
    <edge id=":gneJ8_3" function="internal">
        <lane id=":gneJ8_3_0" index="0" speed="6.74" length="9.37" shape="98.26,17.33 95.82,18.33 94.24,19.81 93.51,21.78 93.63,24.24"/>
    </edge>
    <edge id=":gneJ8_4" function="internal">
        <lane id=":gneJ8_4_0" index="0" speed="13.89" length="15.08" shape="98.26,17.33 94.61,18.22 90.91,18.98 87.18,19.60 83.45,20.08"/>
    </edge>
    <edge id=":gneJ8_5" function="internal">
        <lane id=":gneJ8_5_0" index="0" speed="7.87" length="6.28" shape="98.26,17.33 94.28,17.79 92.11,17.10"/>
    </edge>
    <edge id=":gneJ8_13" function="internal">
        <lane id=":gneJ8_13_0" index="0" speed="7.87" length="8.19" shape="92.11,17.10 91.20,16.82 89.02,14.44 87.74,10.64"/>
    </edge>
    <edge id=":gneJ8_6" function="internal">
        <lane id=":gneJ8_6_0" index="0" speed="6.35" length="9.04" shape="90.88,10.06 91.68,12.43 93.04,13.92 94.97,14.52 97.45,14.24"/>
    </edge>
    <edge id=":gneJ8_7" function="internal">
        <lane id=":gneJ8_7_0" index="0" speed="13.89" length="14.44" shape="90.88,10.06 93.63,24.24"/>
    </edge>
    <edge id=":gneJ8_8" function="internal">
        <lane id=":gneJ8_8_0" index="0" speed="7.88" length="5.85" shape="90.88,10.06 91.04,14.06 90.36,15.78"/>
    </edge>
    <edge id=":gneJ8_14" function="internal">
        <lane id=":gneJ8_14_0" index="0" speed="7.88" length="8.62" shape="90.36,15.78 89.85,17.07 87.32,19.08 83.45,20.08"/>
    </edge>
    <edge id=":gneJ8_9" function="internal">
        <lane id=":gneJ8_9_0" index="0" speed="6.36" length="9.05" shape="83.09,16.90 85.51,16.27 87.10,15.02 87.84,13.14 87.74,10.64"/>
    </edge>
    <edge id=":gneJ8_10" function="internal">
        <lane id=":gneJ8_10_0" index="0" speed="13.89" length="14.62" shape="83.09,16.90 86.75,16.43 90.32,15.84 93.87,15.11 97.45,14.24"/>
    </edge>
    <edge id=":gneJ8_11" function="internal">
        <lane id=":gneJ8_11_0" index="0" speed="8.32" length="5.86" shape="83.09,16.90 87.07,16.99 88.82,17.70"/>
    </edge>
    <edge id=":gneJ8_15" function="internal">
        <lane id=":gneJ8_15_0" index="0" speed="8.32" length="8.50" shape="88.82,17.70 90.15,18.24 92.34,20.66 93.63,24.24"/>
    </edge>

    <edge id="-gneE1" from="gneJ3" to="gneJ2" priority="-1" shape="54.56,58.67 -10.91,74.85">
        <lane id="-gneE1_0" index="0" speed="13.89" length="57.20" shape="45.00,62.68 -10.53,76.40"/>
    </edge>
    <edge id="-gneE10" from="gneJ4" to="gneJ12" priority="-1">
        <lane id="-gneE10_0" index="0" speed="13.89" length="22.44" shape="103.97,91.03 97.87,112.63"/>
    </edge>
    <edge id="-gneE11" from="gneJ8" to="gneJ4" priority="-1">
        <lane id="-gneE11_0" index="0" speed="13.89" length="50.23" shape="93.63,24.24 103.67,73.45"/>
    </edge>
    <edge id="-gneE12" from="gneJ13" to="gneJ8" priority="-1" shape="242.96,-92.17 102.83,-28.84 86.37,-5.49 90.66,17.67">
        <lane id="-gneE12_0" index="0" speed="13.89" length="196.24" shape="243.62,-90.71 103.89,-27.56 88.07,-5.12 90.88,10.06"/>
    </edge>
    <edge id="-gneE2" from="gneJ4" to="gneJ3" priority="-1">
        <lane id="-gneE2_0" index="0" speed="13.89" length="37.67" shape="94.01,80.77 60.51,63.53"/>
    </edge>
    <edge id="-gneE3" from="gneJ5" to="gneJ4" priority="-1">
        <lane id="-gneE3_0" index="0" speed="13.89" length="72.59" shape="175.56,45.83 112.33,81.50"/>
    </edge>
    <edge id="-gneE4" from="gneJ7" to="gneJ6" priority="-1">
        <lane id="-gneE4_0" index="0" speed="13.89" length="83.00" shape="29.51,24.26 -53.36,19.68"/>
    </edge>
    <edge id="-gneE5" from="gneJ8" to="gneJ7" priority="-1">
        <lane id="-gneE5_0" index="0" speed="13.89" length="34.83" shape="83.45,20.08 48.83,23.94"/>
    </edge>
    <edge id="-gneE6" from="gneJ9" to="gneJ8" priority="-1">
        <lane id="-gneE6_0" index="0" speed="13.89" length="153.54" shape="246.81,-21.53 98.26,17.33"/>
    </edge>
    <edge id="-gneE7" from="gneJ3" to="gneJ10" priority="-1">
        <lane id="-gneE7_0" index="0" speed="13.89" length="33.99" shape="52.23,68.77 39.59,100.33"/>
    </edge>
    <edge id="-gneE8" from="gneJ7" to="gneJ3" priority="-1">
        <lane id="-gneE8_0" index="0" speed="13.89" length="22.24" shape="45.02,30.28 53.22,50.95"/>
    </edge>
    <edge id="-gneE9" from="gneJ11" to="gneJ7" priority="-1">
        <lane id="-gneE9_0" index="0" speed="13.89" length="104.37" shape="-27.97,-69.51 35.18,13.59"/>
    </edge>
    <edge id="gneE1" from="gneJ2" to="gneJ3" priority="-1" shape="-10.91,74.85 54.56,58.67">
        <lane id="gneE1_0" index="0" speed="13.89" length="57.20" shape="-11.29,73.30 44.23,59.57"/>
    </edge>
    <edge id="gneE10" from="gneJ12" to="gneJ4" priority="-1">
        <lane id="gneE10_0" index="0" speed="13.89" length="22.44" shape="94.79,111.75 100.89,90.16"/>
    </edge>
    <edge id="gneE11" from="gneJ4" to="gneJ8" priority="-1">
        <lane id="gneE11_0" index="0" speed="13.89" length="50.23" shape="100.53,74.09 90.50,24.88"/>
    </edge>
    <edge id="gneE12" from="gneJ8" to="gneJ13" priority="-1" shape="90.66,17.67 86.37,-5.63 102.69,-28.71 242.96,-92.17">
        <lane id="gneE12_0" index="0" speed="13.89" length="200.69" shape="87.74,10.64 84.67,-6.00 101.63,-29.99 242.30,-93.63"/>
    </edge>
    <edge id="gneE2" from="gneJ3" to="gneJ4" priority="-1">
        <lane id="gneE2_0" index="0" speed="13.89" length="37.67" shape="61.98,60.69 95.47,77.92"/>
    </edge>
    <edge id="gneE3" from="gneJ4" to="gneJ5" priority="-1">
        <lane id="gneE3_0" index="0" speed="13.89" length="72.59" shape="110.76,78.71 173.98,43.05"/>
    </edge>
    <edge id="gneE4" from="gneJ6" to="gneJ7" priority="-1">
        <lane id="gneE4_0" index="0" speed="13.89" length="83.00" shape="-53.18,16.48 29.69,21.06"/>
    </edge>
    <edge id="gneE5" from="gneJ7" to="gneJ8" priority="-1">
        <lane id="gneE5_0" index="0" speed="13.89" length="34.83" shape="48.47,20.76 83.09,16.90"/>
    </edge>
    <edge id="gneE6" from="gneJ8" to="gneJ9" priority="-1">
        <lane id="gneE6_0" index="0" speed="13.89" length="153.54" shape="97.45,14.24 245.99,-24.63"/>
    </edge>
    <edge id="gneE7" from="gneJ10" to="gneJ3" priority="-1">
        <lane id="gneE7_0" index="0" speed="13.89" length="33.99" shape="36.61,99.13 49.26,67.58"/>
    </edge>
    <edge id="gneE8" from="gneJ3" to="gneJ7" priority="-1">
        <lane id="gneE8_0" index="0" speed="13.89" length="22.24" shape="50.25,52.13 42.04,31.46"/>
    </edge>
    <edge id="gneE9" from="gneJ7" to="gneJ11" priority="-1">
        <lane id="gneE9_0" index="0" speed="13.89" length="104.37" shape="32.63,15.53 -30.51,-67.57"/>
    </edge>

    <tlLogic id="gneJ3" type="static" programID="0" offset="0">
        <phase duration="42" state="GGgrrrGGgrrr"/>
        <phase duration="3"  state="yyyrrryyyrrr"/>
        <phase duration="42" state="rrrGGgrrrGGg"/>
        <phase duration="3"  state="rrryyyrrryyy"/>
    </tlLogic>
    <tlLogic id="gneJ4" type="static" programID="0" offset="0">
        <phase duration="38" state="rrrGGgrrrGGg"/>
        <phase duration="3"  state="rrryyyrrryyy"/>
        <phase duration="37" state="GGgrrrGGgrrr"/>
        <phase duration="3"  state="yygrrryygrrr"/>
        <phase duration="6"  state="rrGrrrrrGrrr"/>
        <phase duration="3"  state="rryrrrrryrrr"/>
    </tlLogic>
    <tlLogic id="gneJ7" type="static" programID="0" offset="0">
        <phase duration="42" state="rrrGGgrrrGGg"/>
        <phase duration="3"  state="rrryyyrrryyy"/>
        <phase duration="42" state="GGgrrrGGgrrr"/>
        <phase duration="3"  state="yyyrrryyyrrr"/>
    </tlLogic>
    <tlLogic id="gneJ8" type="static" programID="0" offset="0">
        <phase duration="42" state="GGgrrrGGgrrr"/>
        <phase duration="3"  state="yyyrrryyyrrr"/>
        <phase duration="42" state="rrrGGgrrrGGg"/>
        <phase duration="3"  state="rrryyyrrryyy"/>
    </tlLogic>

    <junction id="gneJ10" type="dead_end" x="38.10" y="99.73" incLanes="-gneE7_0" intLanes="" shape="38.10,99.73 41.07,100.92 38.10,99.73"/>
    <junction id="gneJ11" type="dead_end" x="-29.24" y="-68.54" incLanes="gneE9_0" intLanes="" shape="-29.24,-68.54 -31.79,-66.60 -29.24,-68.54"/>
    <junction id="gneJ12" type="dead_end" x="96.33" y="112.19" incLanes="-gneE10_0" intLanes="" shape="96.33,112.19 99.41,113.06 96.33,112.19"/>
    <junction id="gneJ13" type="dead_end" x="242.96" y="-92.17" incLanes="gneE12_0" intLanes="" shape="242.96,-92.17 244.28,-89.25 241.64,-95.09"/>
    <junction id="gneJ2" type="dead_end" x="-10.91" y="74.85" incLanes="-gneE1_0" intLanes="" shape="-10.91,74.85 -10.14,77.96 -10.91,74.85"/>
    <junction id="gneJ3" type="traffic_light" x="54.56" y="58.67" incLanes="-gneE2_0 -gneE8_0 gneE1_0 gneE7_0" intLanes=":gneJ3_0_0 :gneJ3_1_0 :gneJ3_12_0 :gneJ3_3_0 :gneJ3_4_0 :gneJ3_13_0 :gneJ3_6_0 :gneJ3_7_0 :gneJ3_14_0 :gneJ3_9_0 :gneJ3_10_0 :gneJ3_15_0" shape="59.78,64.95 62.71,59.26 60.42,58.04 58.76,56.98 57.54,55.87 56.58,54.54 55.70,52.76 54.71,50.36 48.76,52.72 48.87,54.97 48.27,55.91 47.23,56.73 45.76,57.44 43.85,58.02 45.38,64.23 47.38,64.11 47.92,64.44 48.17,65.03 48.13,65.88 47.78,66.99 53.72,69.37 54.58,67.51 55.50,66.10 56.49,65.14 57.52,64.63 58.62,64.57">
        <request index="0"  response="000000000000" foes="000100010000" cont="0"/>
        <request index="1"  response="100000100000" foes="111100110000" cont="0"/>
        <request index="2"  response="100011100000" foes="110011110000" cont="1"/>
        <request index="3"  response="000010000000" foes="100010000000" cont="0"/>
        <request index="4"  response="000110000111" foes="100110000111" cont="0"/>
        <request index="5"  response="011110000110" foes="011110000110" cont="1"/>
        <request index="6"  response="000000000000" foes="010000000100" cont="0"/>
        <request index="7"  response="100000100000" foes="110000111100" cont="0"/>
        <request index="8"  response="100000100011" foes="110000110011" cont="1"/>
        <request index="9"  response="000000000010" foes="000000100010" cont="0"/>
        <request index="10" response="000111000110" foes="000111100110" cont="0"/>
        <request index="11" response="000110011110" foes="000110011110" cont="1"/>
    </junction>
    <junction id="gneJ4" type="traffic_light" x="104.23" y="84.23" incLanes="-gneE3_0 -gneE11_0 gneE2_0 gneE10_0" intLanes=":gneJ4_0_0 :gneJ4_1_0 :gneJ4_12_0 :gneJ4_3_0 :gneJ4_4_0 :gneJ4_13_0 :gneJ4_6_0 :gneJ4_7_0 :gneJ4_14_0 :gneJ4_9_0 :gneJ4_10_0 :gneJ4_15_0" shape="113.12,82.89 109.97,77.32 107.90,77.73 107.04,77.25 106.32,76.33 105.71,74.96 105.23,73.13 98.96,74.41 99.01,76.39 98.67,76.89 98.09,77.08 97.27,76.95 96.20,76.50 93.28,82.19 95.43,83.43 97.13,84.67 98.38,85.92 99.16,87.18 99.48,88.45 99.35,89.73 105.51,91.47 106.27,89.11 107.07,87.42 108.03,86.17 109.27,85.14 110.93,84.12">
        <request index="0"  response="000000010000" foes="000100010000" cont="0"/>
        <request index="1"  response="111000110000" foes="111100110000" cont="0"/>
        <request index="2"  response="110011110000" foes="110011110000" cont="1"/>
        <request index="3"  response="000000000000" foes="100010000000" cont="0"/>
        <request index="4"  response="000100000100" foes="100110000111" cont="0"/>
        <request index="5"  response="011100000100" foes="011110000110" cont="1"/>
        <request index="6"  response="010000000000" foes="010000000100" cont="0"/>
        <request index="7"  response="110000111000" foes="110000111100" cont="0"/>
        <request index="8"  response="110000110011" foes="110000110011" cont="1"/>
        <request index="9"  response="000000000000" foes="000000100010" cont="0"/>
        <request index="10" response="000100000100" foes="000111100110" cont="0"/>
        <request index="11" response="000100011100" foes="000110011110" cont="1"/>
    </junction>
    <junction id="gneJ5" type="dead_end" x="174.77" y="44.44" incLanes="gneE3_0" intLanes="" shape="174.77,44.44 173.20,41.65 174.77,44.44"/>
    <junction id="gneJ6" type="dead_end" x="-53.27" y="18.08" incLanes="-gneE4_0" intLanes="" shape="-53.27,18.08 -53.45,21.28 -53.27,18.08"/>
    <junction id="gneJ7" type="traffic_light" x="40.51" y="23.26" incLanes="gneE8_0 -gneE5_0 -gneE9_0 gneE4_0" intLanes=":gneJ7_0_0 :gneJ7_1_0 :gneJ7_12_0 :gneJ7_3_0 :gneJ7_4_0 :gneJ7_13_0 :gneJ7_6_0 :gneJ7_7_0 :gneJ7_14_0 :gneJ7_9_0 :gneJ7_10_0 :gneJ7_15_0" shape="40.56,32.05 46.51,29.69 46.13,27.58 46.39,26.79 46.96,26.19 47.83,25.77 49.01,25.53 48.30,19.17 46.21,19.19 44.16,18.76 42.17,17.89 40.21,16.58 38.31,14.82 36.45,12.63 31.35,16.50 32.25,18.24 32.17,18.83 31.73,19.23 30.93,19.44 29.78,19.46 29.43,25.85 32.20,26.16 34.60,26.76 36.64,27.65 38.31,28.83 39.62,30.30">
        <request index="0"  response="000000010000" foes="000100010000" cont="0"/>
        <request index="1"  response="111000110000" foes="111100110000" cont="0"/>
        <request index="2"  response="110011110000" foes="110011110000" cont="1"/>
        <request index="3"  response="000000000000" foes="100010000000" cont="0"/>
        <request index="4"  response="000100000100" foes="100110000111" cont="0"/>
        <request index="5"  response="111100000100" foes="111110000110" cont="1"/>
        <request index="6"  response="010000000000" foes="010000000100" cont="0"/>
        <request index="7"  response="110000111000" foes="110000111100" cont="0"/>
        <request index="8"  response="110000110011" foes="110000110011" cont="1"/>
        <request index="9"  response="000000000000" foes="000000100010" cont="0"/>
        <request index="10" response="000100000100" foes="000111100110" cont="0"/>
        <request index="11" response="000100011100" foes="000110111110" cont="1"/>
    </junction>
    <junction id="gneJ8" type="traffic_light" x="90.66" y="17.67" incLanes="gneE11_0 -gneE6_0 -gneE12_0 gneE5_0" intLanes=":gneJ8_0_0 :gneJ8_1_0 :gneJ8_12_0 :gneJ8_3_0 :gneJ8_4_0 :gneJ8_13_0 :gneJ8_6_0 :gneJ8_7_0 :gneJ8_14_0 :gneJ8_9_0 :gneJ8_10_0 :gneJ8_15_0" shape="88.93,25.20 95.20,23.92 95.23,21.62 95.67,20.70 96.39,19.94 97.39,19.33 98.67,18.88 97.05,12.69 94.82,12.82 93.96,12.47 93.29,11.84 92.78,10.94 92.45,9.77 86.16,10.93 86.13,13.17 85.72,14.00 85.04,14.63 84.11,15.07 82.92,15.31 83.62,21.67 86.21,21.84 87.19,22.30 87.97,23.02 88.55,23.98">
        <request index="0"  response="000000000000" foes="000100010000" cont="0"/>
        <request index="1"  response="100000100000" foes="111100110000" cont="0"/>
        <request index="2"  response="100011100000" foes="110011110000" cont="1"/>
        <request index="3"  response="000010000000" foes="100010000000" cont="0"/>
        <request index="4"  response="000110000111" foes="100110000111" cont="0"/>
        <request index="5"  response="011110000110" foes="011110000110" cont="1"/>
        <request index="6"  response="000000000000" foes="010000000100" cont="0"/>
        <request index="7"  response="100000100000" foes="110000111100" cont="0"/>
        <request index="8"  response="100000100011" foes="110000110011" cont="1"/>
        <request index="9"  response="000000000010" foes="000000100010" cont="0"/>
        <request index="10" response="000111000110" foes="000111100110" cont="0"/>
        <request index="11" response="000110011110" foes="000110011110" cont="1"/>
    </junction>
    <junction id="gneJ9" type="dead_end" x="246.40" y="-23.08" incLanes="gneE6_0" intLanes="" shape="246.40,-23.08 245.59,-26.18 246.40,-23.08"/>

    <junction id=":gneJ3_12_0" type="internal" x="56.64" y="60.83" incLanes=":gneJ3_2_0 gneE1_0" intLanes=":gneJ3_4_0 :gneJ3_5_0 :gneJ3_6_0 :gneJ3_7_0 :gneJ3_10_0 :gneJ3_11_0"/>
    <junction id=":gneJ3_13_0" type="internal" x="52.74" y="58.45" incLanes=":gneJ3_5_0 gneE7_0" intLanes=":gneJ3_1_0 :gneJ3_2_0 :gneJ3_7_0 :gneJ3_8_0 :gneJ3_9_0 :gneJ3_10_0"/>
    <junction id=":gneJ3_14_0" type="internal" x="52.58" y="60.21" incLanes=":gneJ3_8_0 -gneE2_0" intLanes=":gneJ3_0_0 :gneJ3_1_0 :gneJ3_4_0 :gneJ3_5_0 :gneJ3_10_0 :gneJ3_11_0"/>
    <junction id=":gneJ3_15_0" type="internal" x="52.11" y="62.63" incLanes=":gneJ3_11_0 -gneE8_0" intLanes=":gneJ3_1_0 :gneJ3_2_0 :gneJ3_3_0 :gneJ3_4_0 :gneJ3_7_0 :gneJ3_8_0"/>
    <junction id=":gneJ4_12_0" type="internal" x="104.47" y="81.90" incLanes=":gneJ4_2_0 gneE2_0" intLanes=":gneJ4_4_0 :gneJ4_5_0 :gneJ4_6_0 :gneJ4_7_0 :gneJ4_10_0 :gneJ4_11_0"/>
    <junction id=":gneJ4_13_0" type="internal" x="103.11" y="81.18" incLanes=":gneJ4_5_0 gneE10_0" intLanes=":gneJ4_1_0 :gneJ4_2_0 :gneJ4_7_0 :gneJ4_8_0 :gneJ4_9_0 :gneJ4_10_0"/>
    <junction id=":gneJ4_14_0" type="internal" x="100.60" y="81.44" incLanes=":gneJ4_8_0 -gneE3_0" intLanes=":gneJ4_0_0 :gneJ4_1_0 :gneJ4_4_0 :gneJ4_5_0 :gneJ4_10_0 :gneJ4_11_0"/>
    <junction id=":gneJ4_15_0" type="internal" x="103.05" y="85.79" incLanes=":gneJ4_11_0 -gneE11_0" intLanes=":gneJ4_1_0 :gneJ4_2_0 :gneJ4_3_0 :gneJ4_4_0 :gneJ4_7_0 :gneJ4_8_0"/>
    <junction id=":gneJ7_12_0" type="internal" x="41.25" y="26.21" incLanes=":gneJ7_2_0 -gneE9_0" intLanes=":gneJ7_4_0 :gneJ7_5_0 :gneJ7_6_0 :gneJ7_7_0 :gneJ7_10_0 :gneJ7_11_0"/>
    <junction id=":gneJ7_13_0" type="internal" x="41.44" y="22.76" incLanes=":gneJ7_5_0 :gneJ7_11_0 gneE4_0" intLanes=":gneJ7_15_0 :gneJ7_1_0 :gneJ7_2_0 :gneJ7_7_0 :gneJ7_8_0 :gneJ7_9_0 :gneJ7_10_0 :gneJ7_11_0"/>
    <junction id=":gneJ7_14_0" type="internal" x="38.10" y="20.77" incLanes=":gneJ7_8_0 gneE8_0" intLanes=":gneJ7_0_0 :gneJ7_1_0 :gneJ7_4_0 :gneJ7_5_0 :gneJ7_10_0 :gneJ7_11_0"/>
    <junction id=":gneJ7_15_0" type="internal" x="37.35" y="22.81" incLanes=":gneJ7_11_0 -gneE5_0" intLanes=":gneJ7_1_0 :gneJ7_2_0 :gneJ7_3_0 :gneJ7_4_0 :gneJ7_5_0 :gneJ7_7_0 :gneJ7_8_0"/>
    <junction id=":gneJ8_12_0" type="internal" x="91.00" y="19.09" incLanes=":gneJ8_2_0 -gneE12_0" intLanes=":gneJ8_4_0 :gneJ8_5_0 :gneJ8_6_0 :gneJ8_7_0 :gneJ8_10_0 :gneJ8_11_0"/>
    <junction id=":gneJ8_13_0" type="internal" x="92.11" y="17.10" incLanes=":gneJ8_5_0 gneE5_0" intLanes=":gneJ8_1_0 :gneJ8_2_0 :gneJ8_7_0 :gneJ8_8_0 :gneJ8_9_0 :gneJ8_10_0"/>
    <junction id=":gneJ8_14_0" type="internal" x="90.36" y="15.78" incLanes=":gneJ8_8_0 gneE11_0" intLanes=":gneJ8_0_0 :gneJ8_1_0 :gneJ8_4_0 :gneJ8_5_0 :gneJ8_10_0 :gneJ8_11_0"/>
    <junction id=":gneJ8_15_0" type="internal" x="88.82" y="17.70" incLanes=":gneJ8_11_0 -gneE6_0" intLanes=":gneJ8_1_0 :gneJ8_2_0 :gneJ8_3_0 :gneJ8_4_0 :gneJ8_7_0 :gneJ8_8_0"/>

    <connection from="-gneE11" to="gneE3" fromLane="0" toLane="0" via=":gneJ4_3_0" tl="gneJ4" linkIndex="3" dir="r" state="O"/>
    <connection from="-gneE11" to="-gneE10" fromLane="0" toLane="0" via=":gneJ4_4_0" tl="gneJ4" linkIndex="4" dir="s" state="O"/>
    <connection from="-gneE11" to="-gneE2" fromLane="0" toLane="0" via=":gneJ4_5_0" tl="gneJ4" linkIndex="5" dir="l" state="o"/>
    <connection from="-gneE12" to="gneE6" fromLane="0" toLane="0" via=":gneJ8_6_0" tl="gneJ8" linkIndex="6" dir="r" state="O"/>
    <connection from="-gneE12" to="-gneE11" fromLane="0" toLane="0" via=":gneJ8_7_0" tl="gneJ8" linkIndex="7" dir="s" state="O"/>
    <connection from="-gneE12" to="-gneE5" fromLane="0" toLane="0" via=":gneJ8_8_0" tl="gneJ8" linkIndex="8" dir="l" state="o"/>
    <connection from="-gneE2" to="-gneE7" fromLane="0" toLane="0" via=":gneJ3_0_0" tl="gneJ3" linkIndex="0" dir="r" state="O"/>