<?xml version="1.0" encoding="UTF-8"?>

<!-- generated on 04/26/19 15:22:12 by Eclipse SUMO Version 1.0.1
-->

<configuration xmlns:xsi="http://www.w3.org/2001/XMLSchema-instance" xsi:noNamespaceSchemaLocation="http://sumo.dlr.de/xsd/sumoConfiguration.xsd">

    <input>
        <net-file value="test0.net.xml"/>
        <route-files value="test0_trips.trips.xml"/>
        <!--additional-files value="test0_calibrator.add.xml"/-->
    </input>

    <processing>
        <ignore-route-errors value="true"/>
    </processing>

    <routing>
        <device.rerouting.adaptation-steps value="180"/>
    </routing>

    <report>
        <verbose value="true"/>
        <duration-log.statistics value="true"/>
        <no-step-log value="true"/>
    </report>

</configuration>