<?xml version="1.0" encoding="UTF-8"?>
<!-- generated on 2019-05-08 22:05:58.726565 by $Id$
  options: -n test0.net.xml -e 1 -p 1 -o test0.trips.xml
-->
<routes>
    <trip id="0" depart="1.00" from="-gneE9" to="-gneE9"/>
    <!--trip id="1" depart="0.00" from="-gneE12" to="-gneE12"/>
    <trip id="2" depart="1.00" from="-gneE6" to="-gneE6"/>
    <trip id="3" depart="0.00" from="-gneE3" to="-gneE3"/>
    <trip id="4" depart="1.00" from="gneE10" to="gneE10"/>
    <trip id="5" depart="0.00" from="gneE7" to="gneE7"/>
    <trip id="6" depart="0.00" from="gneE1" to="gneE1"/>
    <trip id="7" depart="1.00" from="gneE4" to="gneE4"/-->
</routes>